500

Ar   0.242055   -0.206435   -0.00026985
Ar   0.059367   2.50178   2.64885
Ar   2.67044   0.245294   2.89387
Ar   2.80293   2.76353   -0.0429062
Ar   0.176212   -0.112797   5.38729
Ar   0.139243   2.8882   8.01347
Ar   2.831   0.12521   8.04612
Ar   2.4837   2.43432   5.49307
Ar   0.17999   0.263374   10.9905
Ar   -0.0286041   2.75058   13.4733
Ar   2.66774   -0.146529   13.4256
Ar   2.45537   2.49557   10.6189
Ar   -0.189435   -0.246373   16.3338
Ar   0.0194292   2.80428   18.9173
Ar   2.93381   -0.0510017   18.859
Ar   2.9643   2.84341   16.3893
Ar   0.120083   -0.0577479   21.7742
Ar   0.221817   2.51311   24.4924
Ar   2.7182   0.111178   24.3575
Ar   2.43809   2.67017   21.4315
Ar   -0.0277946   5.3603   -0.127369
Ar   -0.0310328   8.04234   2.83181
Ar   2.54415   5.21917   2.66612
Ar   2.74303   7.92361   -0.0105242
Ar   -0.127369   5.59237   5.35463
Ar   -0.131147   8.02831   7.93575
Ar   2.46265   5.39214   8.20803
Ar   2.78971   8.23501   5.65012
Ar   0.112797   5.53786   10.8099
Ar   -0.173783   8.02669   13.5216
Ar   2.68474   5.49523   13.3314
Ar   2.50637   8.08417   10.7317
Ar   -0.2515   5.62071   16.0385
Ar   -0.12575   8.24635   18.777
Ar   2.94946   5.62367   19.1078
Ar   2.77595   7.84643   16.4206
Ar   -0.266342   5.29716   21.4067
Ar   -0.0480333   8.32757   24.1702
Ar   2.82344   5.60964   24.5445
Ar   2.69337   8.18617   21.3829
Ar   0.134385   10.6904   0.0210483
Ar   0.086352   13.54   2.48694
Ar   2.96322   10.7562   2.87633
Ar   2.95594   13.2631   0.141132
Ar   0.0043176   10.7751   5.42183
Ar   0.236658   13.4234   8.20074
Ar   2.64858   10.5835   8.11952
Ar   2.94137   13.248   5.23536
Ar   0.267691   10.7762   10.8922
Ar   -0.0070161   13.7146   13.6064
Ar   2.78107   11.0328   13.4253
Ar   2.77325   13.591   10.8412
Ar   0.0833837   10.6334   16.3246
Ar   -0.12683   13.4585   18.9969
Ar   2.4783   10.7263   19.1326
Ar   2.44673   13.3139   16.3146
Ar   0.0437157   10.9896   21.7178
Ar   -0.0137624   13.3967   24.4743
Ar   2.84152   10.9875   24.181
Ar   2.55629   13.554   21.5273
Ar   0.0383187   16.1975   -0.0121433
Ar   0.0256358   18.6445   2.81292
Ar   2.67152   16.4255   2.47938
Ar   2.96727   18.9189   -0.185657
Ar   -0.0555891   16.0836   5.49765
Ar   -0.254469   18.9329   8.2844
Ar   2.47452   16.2191   7.827
Ar   2.83477   18.9934   5.46203
Ar   0.0858123   16.1295   10.8828
Ar   0.167037   18.9435   13.3144
Ar   2.70363   16.1673   13.7489
Ar   2.49099   18.8161   11.0358
Ar   -0.211023   16.205   16.2326
Ar   -0.200768   18.9486   18.73
Ar   2.77055   16.0658   19.1367
Ar   2.70929   18.8612   16.0572
Ar   0.0801455   16.0499   21.3646
Ar   0.142211   18.7521   24.3286
Ar   2.85016   15.9681   24.1351
Ar   2.89009   18.8045   21.3222
Ar   0.182688   21.357   -0.14437
Ar   0.142211   24.2039   2.72306
Ar   2.74114   21.6209   2.45914
Ar   2.89009   24.5207   -0.164609
Ar   -0.173244   21.3327   5.16142
Ar   -0.236928   24.4608   8.1009
Ar   2.48937   21.591   8.17295
Ar   2.85879   24.3974   5.52977
Ar   0.101194   21.3675   10.9092
Ar   0.0137624   24.3202   13.299
Ar   2.61566   21.8382   13.4879
Ar   2.92059   24.2368   10.5395
Ar   0.0858123   21.5081   16.0205
Ar   0.0261755   24.3863   18.9759
Ar   2.6904   21.738   18.6877
Ar   2.63805   24.4368   16.0863
Ar   0.212912   21.3867   21.473
Ar   0.222626   24.5331   24.0563
Ar   2.43405   21.8398   24.5199
Ar   2.47291   24.202   21.7043
Ar   5.30147   -0.133846   -0.134115
Ar   5.63042   2.4864   2.87066
Ar   8.27846   -0.174053   2.52202
Ar   7.95599   2.66153   -0.181339
Ar   5.37514   0.261215   5.55594
Ar   5.17168   2.89927   8.15864
Ar   7.85102   0.244484   8.11952
Ar   7.93575   2.80266   5.38405
Ar   5.36651   0.0976857   10.6877
Ar   5.30984   2.76084   13.4253
Ar   8.19777   0.205896   13.2777
Ar   7.89473   2.48613   10.8159
Ar   5.24238   0.0898601   16.4555
Ar   5.49927   2.78674   19.0849
Ar   8.13733   0.155703   18.8822
Ar   8.03991   2.86068   16.1319
Ar   5.30363   -0.212372   21.5068
Ar   5.50197   2.44997   24.2288
Ar   7.96489   -0.100384   24.4794
Ar   7.95167   2.8399   21.8435
Ar   5.22807   5.65552   0.135465
Ar   5.39646   7.87179   2.68474
Ar   8.08579   5.50062   2.55224
Ar   8.15918   7.94115   0.226134
Ar   5.50359   5.25209   5.16493
Ar   5.43991   8.00753   8.12033
Ar   8.36076   5.59858   8.02426
Ar   8.18212   7.84508   5.65282
Ar   5.49792   5.44692   10.7473
Ar   5.56215   8.11763   13.54
Ar   8.18266   5.36516   13.5308
Ar   7.86397   8.28062   10.9629
Ar   5.42156   5.32927   16.3858
Ar   5.44476   8.21774   18.6922
Ar   8.07526   5.34492   18.9386
Ar   8.2253   7.98891   15.9632
Ar   5.346   5.49172   21.7728
Ar   5.6199   8.36373   24.3335
Ar   8.0024   5.26181   24.1772
Ar   8.20992   8.35348   21.5831
Ar   5.49603   10.7881   0.212642
Ar   5.21377   13.3203   2.55197
Ar   7.90741   11.0069   2.47587
Ar   8.06959   13.4936   -0.261215
Ar   5.3406   10.7211   5.20811
Ar   5.21296   13.2799   8.0391
Ar   7.83887   10.8593   7.84778
Ar   8.25741   13.265   5.21188
Ar   5.59453   10.5681   10.5892
Ar   5.45529   13.2534   13.3541
Ar   8.22071   10.8026   13.5678
Ar   8.03964   13.7135   10.8472
Ar   5.14739   10.9079   16.3437
Ar   5.36354   13.3363   19.0012
Ar   8.13436   10.5252   19.107
Ar   7.91038   13.3862   15.9476
Ar   5.48848   10.7176   21.6547
Ar   5.47121   13.2313   24.3726
Ar   7.96219   10.7371   24.4981
Ar   8.12222   13.6639   21.5804
Ar   5.6628   16.2153   -0.0329217
Ar   5.28069   18.9162   2.6985
Ar   7.94034   16.4336   2.51986
Ar   7.97245   18.9839   0.164069
Ar   5.21539   16.1556   5.44611
Ar   5.27881   18.737   8.03236
Ar   8.0391   16.0482   8.30059
Ar   8.10494   18.7562   5.244
Ar   5.17006   16.3775   10.8965
Ar   5.50332   19.0773   13.4787
Ar   7.99431   16.3893   13.5999
Ar   8.09361   18.8933   10.7141
Ar   5.60101   16.4066   16.3651
Ar   5.1849   18.9105   18.8747
Ar   7.88637   16.0531   18.985
Ar   8.10548   18.7729   16.1778
Ar   5.42965   16.157   21.5116
Ar   5.47526   19.009   24.5504
Ar   8.32082   16.2617   24.5375
Ar   8.19561   18.7664   21.4385
Ar   5.17437   21.6501   -0.200768
Ar   5.1876   24.2795   2.59596
Ar   8.00807   21.598   2.66072
Ar   7.94843   24.3291   -0.155973
Ar   5.53327   21.6341   5.45367
Ar   5.35625   24.2878   8.27657
Ar   8.10656   21.8562   8.10575
Ar   8.07769   24.4012   5.53435
Ar   5.44773   21.5262   10.729
Ar   5.43019   24.1664   13.4693
Ar   8.28682   21.5691   13.5759
Ar   8.13679   24.1332   10.8229
Ar   5.34006   21.7656   16.0137
Ar   5.15656   24.0407   19.1275
Ar   7.929   21.6627   18.706
Ar   8.12168   24.4489   15.9767
Ar   5.47526   21.8449   21.7996
Ar   5.43856   24.5356   24.2001
Ar   8.19238   21.4736   24.0946
Ar   7.87908   24.4732   21.7955
Ar   10.6745   0.205086   -0.195641
Ar   10.7036   2.64723   2.6305
Ar   13.5019   0.177831   2.86014
Ar   13.5535   2.85231   -0.247722
Ar   10.7031   -0.266612   5.26504
Ar   10.818   2.78269   8.08309
Ar   13.2812   -0.116305   8.10845
Ar   13.4043   2.57167   5.28339
Ar   10.9705   0.109829   10.611
Ar   10.6391   2.58408   13.3784
Ar   13.4944   -0.0604464   13.292
Ar   13.2936   2.60621   10.9475
Ar   10.8563   0.230452   16.4287
Ar   10.8345   2.53362   18.6658
Ar   13.7497   -0.268231   18.713
Ar   13.3117   2.78215   16.0939
Ar   10.6469   -0.258516   21.4139
Ar   10.9713   2.81211   24.3585
Ar   13.7041   0.244754   24.3823
Ar   13.5932   2.7352   21.6889
Ar   10.7497   5.62125   0.0855425
Ar   10.7357   7.91524   2.81669
Ar   13.4709   5.44773   2.53551
Ar   13.4431   8.16377   -0.0437157
Ar   10.5716   5.47688   5.3209
Ar   10.8291   8.1206   8.26011
Ar   13.2653   5.4704   8.19804
Ar   13.6307   7.87827   5.22133
Ar   10.6494   5.44449   10.9594
Ar   10.6677   8.02696   13.2828
Ar   13.459   5.29904   13.5592
Ar   13.6622   8.33027   10.5295
Ar   10.8752   5.50467   16.0366
Ar   10.7387   8.02426   18.964
Ar   13.279   5.39781   19.0269
Ar   13.7518   8.07769   16.337
Ar   10.893   5.60829   21.7097
Ar   10.7468   8.35024   24.055
Ar   13.577   5.48119   24.1475
Ar   13.615   8.08956   21.5985
Ar   10.6275   10.9411   0.189974
Ar   10.6925   13.4045   2.96754
Ar   13.6574   10.9365   2.49746
Ar   13.3713   13.3524   -0.00404775
Ar   10.597   10.7028   5.31443
Ar   10.5312   13.4744   8.36157
Ar   13.227   10.8536   8.33863
Ar   13.7019   13.5972   5.4337
Ar   10.8129   10.8642   10.7843
Ar   10.9621   13.3754   13.5486
Ar   13.5001   10.8053   13.5975
Ar   13.5589   13.2847   10.8107
Ar   10.6094   10.6423   15.9665
Ar   10.8679   13.5691   18.9383
Ar   13.3576   10.92   18.767
Ar   13.4779   13.6398   16.4495
Ar   10.6577   10.6086   21.4909
Ar   10.6229   13.7537   24.4201
Ar   13.3346   10.8995   24.4711
Ar   13.646   13.3913   21.5375
Ar   10.6861   16.0879   0.0075558
Ar   10.7238   18.9524   2.83262
Ar   13.472   16.1956   2.88928
Ar   13.6363   19.0681   0.145719
Ar   10.7441   16.0294   5.53867
Ar   10.5865   18.8822   8.16323
Ar   13.5411   16.4525   8.05529
Ar   13.3883   19.1529   5.65606
Ar   10.6305   16.0118   10.5792
Ar   10.526   18.8887   13.5546
Ar   13.5103   15.9659   13.7192
Ar   13.6353   19.0506   10.9297
Ar   10.9699   16.3694   15.9257
Ar   10.9805   18.9386   18.8261
Ar   13.5594   15.9325   19.0266
Ar   13.5357   18.6528   16.178
Ar   10.773   15.9735   21.3816
Ar   10.5779   18.6501   24.3173
Ar   13.3678   16.1516   24.0571
Ar   13.4083   18.6226   21.785
Ar   10.5679   21.7934   -0.154624
Ar   11.0126   24.4932   2.88928
Ar   13.4107   21.4998   2.5204
Ar   13.6946   24.5393   -0.225864
Ar   10.9713   21.4334   5.18112
Ar   11.0185   24.5245   8.08444
Ar   13.7033   21.7194   8.24041
Ar   13.6995   24.392   5.38917
Ar   10.7333   21.5224   10.7794
Ar   10.9659   24.4508   13.5049
Ar   13.3543   21.6001   13.7221
Ar   13.3473   24.372   10.5595
Ar   10.5487   21.6916   16.0779
Ar   10.9076   24.5245   18.8396
Ar   13.4593   21.4971   18.8814
Ar   13.2683   24.5434   16.2763
Ar   10.7017   21.5545   21.7415
Ar   10.5528   24.372   24.0579
Ar   13.306   21.7094   24.3704
Ar   13.2526   24.3259   21.4401
Ar   15.9241   0.0267152   0.255008
Ar   16.3078   2.43944   2.87012
Ar   18.954   0.187546   2.91627
Ar   19.0711   2.56384   -0.037779
Ar   16.0701   -0.168656   5.56808
Ar   16.2317   2.54981   8.1635
Ar   18.9856   -0.127099   8.347
Ar   19.0333   2.78674   5.42587
Ar   16.0671   -0.00296835   10.9538
Ar   16.2307   2.46373   13.5799
Ar   18.9772   -0.0334614   13.3802
Ar   18.6868   2.90143   10.5841
Ar   16.1961   0.146798   16.2525
Ar   16.1454   2.66612   18.896
Ar   18.8838   0.119274   18.9772
Ar   18.8671   2.53065   16.2493
Ar   16.2652   -0.0512715   21.8252
Ar   16.2153   2.96025   24.3521
Ar   18.7098   0.0715103   24.3629
Ar   19.127   2.92571   21.5354
Ar   16.0647   5.53381   0.0477635
Ar   16.3278   8.11412   2.4667
Ar   18.9019   5.62529   2.95891
Ar   19.1332   8.14731   -0.0286041
Ar   16.2307   5.60748   5.66631
Ar   16.3356   7.92415   7.92684
Ar   18.9286   5.22322   8.1519
Ar   19.1197   8.32002   5.65633
Ar   16.1457   5.28204   10.6831
Ar   16.3327   8.15163   13.2421
Ar   18.7111   5.19704   13.2534
Ar   18.6744   8.04531   11.0463
Ar   16.1041   5.40537   15.957
Ar   15.9346   7.84535   18.8668
Ar   18.9672   5.32252   18.8102
Ar   18.9114   7.89662   16.4447
Ar   15.9543   5.30471   21.438
Ar   16.4174   8.21531   24.0914
Ar   19.0387   5.38783   24.4856
Ar   18.753   8.2083   21.3446
Ar   16.2058   10.6977   -0.133306
Ar   16.0796   13.5203   2.66558
Ar   19.0007   10.8553   2.55764
Ar   18.6582   13.5767   0.0655736
Ar   16.2962   10.9168   5.1509
Ar   16.4339   13.4849   8.21666
Ar   18.6375   10.9511   7.82619
Ar   18.9934   13.3967   5.13929
Ar   16.4455   10.967   10.8161
Ar   16.4592   13.4053   13.6706
Ar   18.7562   10.6372   13.5454
Ar   18.9011   13.5659   10.9413
Ar   15.9994   10.6947   16.3567
Ar   16.0205   13.2701   19.0247
Ar   19.1181   10.7759   19.0603
Ar   19.1011   13.2291   16.2825
Ar   16.1683   10.9778   21.6927
Ar   16.106   13.554   24.5167
Ar   18.8906   10.6866   24.2498
Ar   18.7754   13.4698   21.7316
Ar   15.9462   16.1306   0.016191
Ar   16.0739   18.9777   2.93624
Ar   18.7783   16.3267   2.54523
Ar   18.7594   18.9486   0.0242865
Ar   16.2339   16.1986   5.58428
Ar   16.099   18.8204   8.04909
Ar   19.0269   16.2315   7.88151
Ar   18.9545   18.6423   5.16898
Ar   16.2366   15.99   10.6359
Ar   16.3078   18.6928   13.6757
Ar   18.6974   16.3831   13.5667
Ar   19.1523   18.7378   10.8777
Ar   16.4188   16.2579   16.0925
Ar   15.9395   18.8604   19.1383
Ar   18.7324   15.9695   18.9424
Ar   18.7756   18.9459   16.1222
Ar   16.2147   16.4495   21.5991
Ar   16.0037   18.8361   24.2803
Ar   19.0851   16.4034   24.4757
Ar   19.0511   19.009   21.5119
Ar   16.4387   21.6517   -0.0588273
Ar   16.11   24.1761   2.78944
Ar   19.134   21.7809   2.79376
Ar   18.9022   24.3059   -0.0787962
Ar   16.4401   21.7893   5.31362
Ar   16.3783   24.1726   7.89743
Ar   19.1056   21.5837   8.27684
Ar   18.7953   24.4929   5.6002
Ar   16.2398   21.8271   10.8814
Ar   15.9975   24.491   13.574
Ar   18.8412   21.4061   13.5751
Ar   18.8056   24.2514   10.7956
Ar   16.2911   21.6069   16.4069
Ar   15.9363   24.2023   18.7235
Ar   18.7014   21.7429   18.8428
Ar   18.6461   24.4382   16.1009
Ar   15.926   21.7677   21.7672
Ar   15.9444   24.1764   24.0542
Ar   18.8393   21.7418   24.1996
Ar   19.1124   24.0444   21.8185
Ar   21.7648   -0.21669   0.0887807
Ar   21.7138   2.82614   2.66855
Ar   24.2371   -0.232341   2.80347
Ar   24.3351   2.75625   0.206435
Ar   21.5033   0.25258   5.29743
Ar   21.7664   2.76138   7.84427
Ar   24.2082   -0.151656   8.34052
Ar   24.3618   2.59353   5.29635
Ar   21.3557   -0.0116036   10.6097
Ar   21.6695   2.48856   13.6512
Ar   24.2935   0.232341   13.5171
Ar   24.1483   2.54523   10.6523
Ar   21.5537   0.0690816   16.446
Ar   21.4059   2.6305   18.9597
Ar   24.0417   -0.0841932   19.0217
Ar   24.4271   2.55602   16.2328
Ar   21.8206   -0.102813   21.6207
Ar   21.4274   2.80671   24.2474
Ar   24.4352   0.143021   24.0388
Ar   24.4856   2.70983   21.3481
Ar   21.7604   5.59615   0.129528
Ar   21.6325   8.16296   2.73925
Ar   24.1643   5.397   2.96214
Ar   24.4427   8.1886   -0.0890505
Ar   21.6633   5.43937   5.53112
Ar   21.6511   7.87018   7.99512
Ar   24.4365   5.20109   8.0731
Ar   24.3534   8.17969   5.60478
Ar   21.5656   5.6172   10.5679
Ar   21.5691   8.01913   13.2715
Ar   24.1103   5.13093   13.3829
Ar   24.2377   8.33702   10.8337
Ar   21.7159   5.45205   16.2809
Ar   21.6082   8.2852   19.1364
Ar   24.3154   5.38729   18.6458
Ar   24.0542   8.17349   16.3888
Ar   21.3468   5.49037   21.5335
Ar   21.7108   8.02291   24.4112
Ar   24.29   5.42102   24.0682
Ar   24.0312   7.91227   21.3192
Ar   21.343   10.9338   0.0221277
Ar   21.8284   13.3454   2.82074
Ar   24.3162   10.7635   2.5455
Ar   24.3839   13.6255   -0.266072
Ar   21.6269   10.5492   5.66226
Ar   21.7998   13.5297   8.11871
Ar   24.2209   11.0331   8.17214
Ar   24.0393   13.5586   5.43829
Ar   21.8535   10.5857   10.8871
Ar   21.6304   13.5106   13.6795
Ar   24.3799   10.6237   13.6193
Ar   24.3092   13.4725   11.0317
Ar   21.3187   10.6745   16.246
Ar   21.5543   13.7089   18.985
Ar   24.0909   10.706   18.818
Ar   24.3464   13.4426   16.4028
Ar   21.6582   10.5922   21.5292
Ar   21.775   13.4617   24.5129
Ar   24.4006   10.7408   24.0353
Ar   24.2703   13.5092   21.625
Ar   21.7998   16.1049   0.0572082
Ar   21.5893   19.0684   2.83235
Ar   24.2671   16.0623   2.88901
Ar   24.0474   19.0673   -0.0113337
Ar   21.5006   16.4433   5.16223
Ar   21.5626   18.8568   8.09658
Ar   24.3426   16.0574   7.97299
Ar   24.2509   19.0406   5.60829
Ar   21.754   15.9821   10.675
Ar   21.6538   18.9702   13.2653
Ar   24.219   16.3292   13.482
Ar   24.2638   18.9481   10.5757
Ar   21.8444   16.263   16.2558
Ar   21.5462   19.0833   18.7519
Ar   24.3202   16.3567   19.141
Ar   24.4463   18.9114   16.4428
Ar   21.6719   16.2067   21.5111
Ar   21.7442   18.839   24.3202
Ar   24.4444   16.4538   24.1273
Ar   24.514   19.1397   21.5505
Ar   21.8341   21.4747   0.0582876
Ar   21.3713   24.2706   2.49746
Ar   24.3154   21.8471   2.55035
Ar   24.3979   24.0852   0.220467
Ar   21.4372   21.388   5.1795
Ar   21.5794   24.368   8.07148
Ar   24.2366   21.7863   8.05961
Ar   24.2115   24.0509   5.45772
Ar   21.5848   21.8403   10.6013
Ar   21.7996   24.2595   13.5295
Ar   24.3955   21.5038   13.492
Ar   24.1235   24.4684   10.8267
Ar   21.3484   21.6004   16.1861
Ar   21.823   24.1246   18.7602
Ar   24.5396   21.6625   18.7611
Ar   24.4576   24.5469   15.9301
Ar   21.7845   21.4436   21.666
Ar   21.6439   24.4042   24.1173
Ar   24.042   21.8217   24.1019
Ar   24.4241   24.3664   21.6819
